LTspice 24.0.12 for Windows
Circuit: * C:\Users\Usuario\OneDrive\Escritorio\Facultad\2024 2do semestre\SDRA\Simulaciones LTspice\AC analysis\Simulación AC analysis.asc
Start Time: Sun Dec 15 21:17:04 2024
solver = Normal
Maximum thread count: 4
tnom = 27
temp = 27
method = modified trap
Direct Newton iteration for .op point succeeded.
Total elapsed time: 0.078 seconds.

