LTspice 24.0.12 for Windows
Circuit: * C:\Users\Usuario\OneDrive\Escritorio\Facultad\2024 2do semestre\SDRA\Simulaciones LTspice\DC Sweep\DC Sweep.asc
Start Time: Sun Dec 15 17:52:13 2024
solver = Normal
Maximum thread count: 4
tnom = 27
temp = 27
method = modified trap
.step v1=5
.step v1=5.5
.step v1=6
.step v1=6.5
.step v1=7
.step v1=7.5
.step v1=8
.step v1=8.5
.step v1=9
.step v1=9.5
.step v1=10
.step v1=10.5
.step v1=11
.step v1=11.5
.step v1=12
.step v1=12.5
.step v1=13
.step v1=13.5
.step v1=14
.step v1=14.5
.step v1=15
Total elapsed time: 0.267 seconds.

