LTspice 24.0.12 for Windows
Circuit: * C:\Users\Usuario\OneDrive\Escritorio\Facultad\2024 2do semestre\SDRA\Simulaciones LTspice\Comando .step\Comando Step.asc
Start Time: Sun Dec 15 22:01:25 2024
solver = Normal
Maximum thread count: 4



Direct Newton iteration for .op point succeeded.
.step r=1000



.step r=1258.92541179417



.step r=1584.89319246111



.step r=1995.26231496888



.step r=2511.88643150958



.step r=3162.27766016838



.step r=3981.07170553497



.step r=5011.87233627272



.step r=6309.57344480193



.step r=7943.28234724282



.step r=10000



.step r=12589.2541179417



.step r=15848.9319246111



.step r=19952.6231496888



.step r=25118.8643150958



.step r=31622.7766016838



.step r=39810.7170553497



.step r=50118.7233627273



.step r=63095.7344480194



.step r=79432.8234724282
tnom = 27
temp = 27
method = modified trap
.step r=100000
Total elapsed time: 0.824 seconds.

