LTspice 24.0.12 for Windows
Circuit: * C:\Users\Usuario\OneDrive\Escritorio\Facultad\2024 2do semestre\SDRA\Simulaciones LTspice\Comando .step\Draft4.asc
Start Time: Sun Dec 15 22:17:39 2024
solver = Normal
Maximum thread count: 4



Direct Newton iteration for .op point succeeded.






































































































































































































































































































tnom = 27
temp = 27
method = modified trap
Total elapsed time: 1.665 seconds.

