LTspice 24.0.12 for Windows
Circuit: * C:\Users\Usuario\OneDrive\Escritorio\Facultad\2024 2do semestre\SDRA\Simulaciones LTspice\DC Transfer\DC Transfer.asc
Start Time: Sun Dec 15 19:35:14 2024
solver = Normal
Maximum thread count: 4
tnom = 27
temp = 27
method = modified trap
WARNING: Less than two connections to node vout.  This node is used by r4.
Direct Newton iteration for .op point succeeded.
Total elapsed time: 0.078 seconds.

